DEBUT()


mesh = LIRE_MAILLAGE(UNITE=20)

model = AFFE_MODELE(
    AFFE=_F(MODELISATION=('3D', ), PHENOMENE='MECANIQUE', TOUT='OUI'),
    MAILLAGE=mesh
)

mater = DEFI_MATERIAU(ELAS=_F(E=2e+11, NU=0.3))

fieldmat = AFFE_MATERIAU(AFFE=_F(MATER=(mater, ), TOUT='OUI'), MAILLAGE=mesh)

load = AFFE_CHAR_MECA(
    DDL_IMPO=_F(DX=0.0, DY=0.0, DZ=0.0, GROUP_NO=('Group_1', )),
    FORCE_NODALE=_F(FZ=-1000.0, GROUP_NO=('Group_2', )),
    MODELE=model
)

reslin = MECA_STATIQUE(CHAM_MATER=fieldmat, EXCIT=_F(CHARGE=load), MODELE=model)

reslin = CALC_CHAMP(
    reuse=reslin,
    CONTRAINTE=('SIGM_ELGA', 'SIGM_NOEU'),
    CRITERES=('SIEQ_ELGA', 'SIEQ_NOEU'),
    DEFORMATION=('EPSI_ELGA', 'EPSI_NOEU'),
    RESULTAT=reslin
)

IMPR_RESU(FORMAT='MED', UNITE=80)

FIN()